.subckt fulladder_x4 a1 a2 a3 a4 b1 b2 b3 b4 cin1 cin2 cin3 cout sout vdd vss
