.subckt halfadder_x2 a b cout sout vdd vss
