.subckt halfadder_x4 a b cout sout vdd vss
