.subckt nmx3_x4 cmd0 cmd1 i0 i1 i2 nq vdd vss
