.subckt noa2a2a23_x1 i0 i1 i2 i3 i4 i5 nq vdd vss
