.subckt oa3ao322_x4 i0 i1 i2 i3 i4 i5 i6 q vdd vss
