.subckt mx3_x2 cmd0 cmd1 i0 i1 i2 q vdd vss
