.subckt nao2o22_x1 i0 i1 i2 i3 nq vdd vss
