.subckt noa2ao222_x1 i0 i1 i2 i3 i4 nq vdd vss
