.subckt oa2ao222_x4 i0 i1 i2 i3 i4 q vdd vss
