.subckt oa2a2a2a24_x2 i0 i1 i2 i3 i4 i5 i6 i7 q vdd vss
