.subckt oa2a2a23_x2 i0 i1 i2 i3 i4 i5 q vdd vss
